/*--------------------------------*- C++ -*----------------------------------*\
| =========                 |                                                 |
| \\      /  F ield         | OpenFOAM Extend Project: Open Source CFD        |
|  \\    /   O peration     | Version:  1.6-ext                               |
|   \\  /    A nd           | Web:      www.extend-project.de                 |
|    \\/     M anipulation  |                                                 |
\*---------------------------------------------------------------------------*/
FoamFile
{
    version     2.0;
    format      ascii;
    class       dictionary;
    object      blockMeshDict;
}
// * * * * * * * * * * * * * * * * * * * * * * * * * * * * * * * * * * * * * //

convertToMeters 1;

vertices
(
    ( -0.07  -0.07  -0.07)
    ( 0.07 -0.07  -0.07)
    ( 0.07 0.07  -0.07)
    ( -0.07  0.07  -0.07)
    ( -0.07  -0.07  0.07)
    ( 0.07 -0.07  0.07)
    ( 0.07 0.07  0.07)
    ( -0.07  0.07  0.07)
);

blocks
(
    hex (0 1 2 3 4 5 6 7) (7 7 7) simpleGrading (1 1 1)
);

edges
(
);

patches
(
    patch back
    (
        (0 4 7 3)
    )
    patch front
    (
        (2 6 5 1)
    )
    patch top
    (
        (3 7 6 2)
    )
    patch bottom
    (
        (1 5 4 0)
    )
    wall inlet
    (
        (0 3 2 1)
    )
    wall outlet
    (
        (4 5 6 7)
    )
);

mergePatchPairs
(
);

// ************************************************************************* //
