/*--------------------------------*- C++ -*----------------------------------*\
| =========                 |                                                 |
| \\      /  F ield         | OpenFOAM: The Open Source CFD Toolbox           |
|  \\    /   O peration     | Version:  1.6                                   |
|   \\  /    A nd           | Web:      www.OpenFOAM.org                      |
|    \\/     M anipulation  |                                                 |
\*---------------------------------------------------------------------------*/
FoamFile
{
    version     2.0;
    format      ascii;
    class       dictionary;
    location    "system";
    object      fvSchemes;
}
// * * * * * * * * * * * * * * * * * * * * * * * * * * * * * * * * * * * * * //

ddtSchemes
{
    default         Euler;//1st imp
//    default         backward;//2st imp
}

gradSchemes
{
    default         Gauss linear;
    grad(p)         Gauss linear;
    grad(U)         Gauss linear;
}

divSchemes
{
    default         Gauss linear;
    //div(phi,U)      Gauss linearUpwind default;
    div(phi,U)      Gauss limitedLinearV 1;
    div(phi,Yi_h)   Gauss limitedLinear 1;
    div(phi,k)      Gauss upwind;
    div(phi,epsilon) Gauss upwind;

//    div(phi,U)      Gauss limitedLinearV 1;
 //   div(phi,k)      Gauss limitedLinear 1;
  //  div(phi,epsilon) Gauss limitedLinear 1;
    div(phi,R)      Gauss limitedLinear 1;
    div(R)          Gauss linear;
    div(phi,nuTilda) Gauss limitedLinear 1;
    div((viscousTerm*dev(grad(U).T()))) Gauss linear;
    div((nu*dev(grad(U).T()))) Gauss linear;
    div((nuEff*dev(grad(U).T()))) Gauss linear;
}

laplacianSchemes
{
//   /* 
    default         Gauss linear corrected;
    laplacian(viscousTerm,U) Gauss linear corrected;
    laplacian(nu,U) Gauss linear corrected;
    laplacian(nuEff,U) Gauss linear corrected;
    laplacian((1|A(U)),p) Gauss linear corrected;
    laplacian((voidfraction2|A(U)),p) Gauss linear corrected;
    laplacian(DkEff,k) Gauss linear corrected;
    laplacian(DepsilonEff,epsilon) Gauss linear corrected;
    laplacian(DREff,R) Gauss linear corrected;
    laplacian(DnuTildaEff,nuTilda) Gauss linear corrected;
  //  */
/*
    default         Gauss linear uncorrected;
    laplacian(viscousTerm,U) Gauss linear uncorrected;
    laplacian(nu,U) Gauss linear uncorrected;
    laplacian(nuEff,U) Gauss linear uncorrected;
    laplacian((1|A(U)),p) Gauss linear uncorrected;
    laplacian((voidfraction2|A(U)),p) Gauss linear uncorrected;
    laplacian(DkEff,k) Gauss linear uncorrected;
    laplacian(DepsilonEff,epsilon) Gauss linear uncorrected;
    laplacian(DREff,R) Gauss linear uncorrected;
    laplacian(DnuTildaEff,nuTilda) Gauss linear uncorrected;
*/
}

interpolationSchemes
{
    default         linear;
    interpolate(U)  linear;
}

snGradSchemes
{
    default         corrected;
}

fluxRequired
{
    default         no;
    p               ;
}


// ************************************************************************* //
