/*--------------------------------*- C++ -*----------------------------------*\
| =========                 |                                                 |
| \\      /  F ield         | OpenFOAM: The Open Source CFD Toolbox           |
|  \\    /   O peration     | Version:  1.6                                   |
|   \\  /    A nd           | Web:      http://www.OpenFOAM.org               |
|    \\/     M anipulation  |                                                 |
\*---------------------------------------------------------------------------*/
FoamFile
{
    version     2.0;
    format      ascii;
    class       dictionary;
    object      autoHexMeshDict;
}

// * * * * * * * * * * * * * * * * * * * * * * * * * * * * * * * * * * * * * //

// Which of the steps to run
castellatedMesh true;
//snap            true;
snap            false;
addLayers       false;


// Geometry. Definition of all surfaces. All surfaces are of class
// searchableSurface.
// Surfaces are used
// - to specify refinement for any mesh cell intersecting it
// - to specify refinement for any mesh cell inside/outside/near
// - to 'snap' the mesh boundary to the surface
geometry
{
   
    /*cylinder_wiki_close.stl
    {
        type triSurfaceMesh;
	name cylinder;
        // Per region the patchname. If not provided will be <name>_<region>.
        regions
        {
            suplat
            {
                name mysuplat;
            }
        }
    }*/

    refinementbox0
    {
      type searchableBox;
      min (-0.005 0.0000 -0.01);
      max (0.000 0.3500 0.01);
    }
    refinementbox1
    {
      type searchableBox;
      min (-0.005 0.3500 -0.01);
      max (0.000 0.4900 0.01);
    }
    refinementbox2
    {
      type searchableBox;
      min (-0.005 0.4900 -0.01);
      max (0.000 10.010 0.01);
    }

    refinementbox3
    {
      type searchableBox;
      min (-0.005 10.010 -0.01);
      max (0.000 10.150 0.01);
    }
    refinementbox3u
    {
      type searchableBox;
      min (-0.005 10.150 -0.01);
      max (0.000 10.500 0.01);
    }

    refinementbox4l
    {
      type searchableBox;
      min (0.09  0.0000 -0.01);
      max (0.095 0.3500 0.01);
    }
    refinementbox4
    {
      type searchableBox;
      min (0.09 0.3500 -0.01);
      max (0.095 0.4900 0.01);
    }
    refinementbox5
    {
      type searchableBox;
      min (0.09 0.4900 -0.01);
      max (0.095 10.010 0.01);
    }

    refinementbox6
    {
      type searchableBox;
      min (0.09 10.010 -0.01);
      max (0.095 10.150 0.01);
    }
    refinementbox6u
    {
      type searchableBox;
      min (0.09 10.150 -0.01);
      max (0.095 10.500 0.01);
    }
};



// Settings for the castellatedMesh generation.
castellatedMeshControls
{

    // Refinement parameters
    // ~~~~~~~~~~~~~~~~~~~~~

    // While refining maximum number of cells per processor. This is basically
    // the number of cells that fit on a processor. If you choose this too small
    // it will do just more refinement iterations to obtain a similar mesh.
    maxLocalCells 1500000;

    // Overall cell limit (approximately). Refinement will stop immediately
    // upon reaching this number so a refinement level might not complete.
    // Note that this is the number of cells before removing the part which
    // is not 'visible' from the keepPoint. The final number of cells might
    // actually be a lot less.
    maxGlobalCells 2000000;

    // The surface refinement loop might spend lots of iterations refining just a
    // few cells. This setting will cause refinement to stop if <= minimumRefine
    // are selected for refinement. Note: it will at least do one iteration
    // (unless the number of cells to refine is 0)
    minRefinementCells 0;

    // Number of buffer layers between different levels.
    // 1 means normal 2:1 refinement restriction, larger means slower
    // refinement.
    nCellsBetweenLevels 6;



    // Explicit feature edge refinement
    // ~~~~~~~~~~~~~~~~~~~~~~~~~~~~~~~~

    // Specifies a level for any cell intersected by its edges.
    // This is a featureEdgeMesh, read from constant/triSurface for now.
    features
    (
      //  {
        //    file "cylinder_wiki_close.eMesh";
          //  level 0;
       // }
    );



    // Surface based refinement
    // ~~~~~~~~~~~~~~~~~~~~~~~~

    // Specifies two levels for every surface. The first is the minimum level,
    // every cell intersecting a surface gets refined up to the minimum level.
    // The second level is the maximum level. Cells that 'see' multiple
    // intersections where the intersections make an
    // angle > resolveFeatureAngle get refined up to the maximum level.

    refinementSurfaces
    {
        refinementbox0
        {
            // Surface-wise min and max refinement level
            level (0 0);

            // Optional region-wise level specification

            // Optional angle to detect small-large cell situation perpendicular
            // to the surface. Is the angle of face w.r.t the local surface
            // normal. Use on flat(ish) surfaces only. Otherwise
            // leave out or set to negative number.
            //perpendicularAngle 10;
        }
        refinementbox1
        {
            // Surface-wise min and max refinement level
            level (0 0);

            // Optional region-wise level specification

            // Optional angle to detect small-large cell situation perpendicular
            // to the surface. Is the angle of face w.r.t the local surface
            // normal. Use on flat(ish) surfaces only. Otherwise
            // leave out or set to negative number.
            //perpendicularAngle 10;
        }

        refinementbox2
        {
            // Surface-wise min and max refinement level
            level (0 0);

            // Optional region-wise level specification

            // Optional angle to detect small-large cell situation perpendicular
            // to the surface. Is the angle of face w.r.t the local surface
            // normal. Use on flat(ish) surfaces only. Otherwise
            // leave out or set to negative number.
            //perpendicularAngle 10;
        }
        refinementbox3
        {
            // Surface-wise min and max refinement level
            level (0 0);

            // Optional region-wise level specification

            // Optional angle to detect small-large cell situation perpendicular
            // to the surface. Is the angle of face w.r.t the local surface
            // normal. Use on flat(ish) surfaces only. Otherwise
            // leave out or set to negative number.
            //perpendicularAngle 10;
        }
        refinementbox3u
        {
            // Surface-wise min and max refinement level
            level (0 0);

            // Optional region-wise level specification

            // Optional angle to detect small-large cell situation perpendicular
            // to the surface. Is the angle of face w.r.t the local surface
            // normal. Use on flat(ish) surfaces only. Otherwise
            // leave out or set to negative number.
            //perpendicularAngle 10;
        }
        refinementbox4
        {
            // Surface-wise min and max refinement level
            level (0 0);

            // Optional region-wise level specification

            // Optional angle to detect small-large cell situation perpendicular
            // to the surface. Is the angle of face w.r.t the local surface
            // normal. Use on flat(ish) surfaces only. Otherwise
            // leave out or set to negative number.
            //perpendicularAngle 10;
        }
        refinementbox4l
        {
            // Surface-wise min and max refinement level
            level (0 0);

            // Optional region-wise level specification

            // Optional angle to detect small-large cell situation perpendicular
            // to the surface. Is the angle of face w.r.t the local surface
            // normal. Use on flat(ish) surfaces only. Otherwise
            // leave out or set to negative number.
            //perpendicularAngle 10;
        }
        refinementbox5
        {
            // Surface-wise min and max refinement level
            level (0 0);

            // Optional region-wise level specification

            // Optional angle to detect small-large cell situation perpendicular
            // to the surface. Is the angle of face w.r.t the local surface
            // normal. Use on flat(ish) surfaces only. Otherwise
            // leave out or set to negative number.
            //perpendicularAngle 10;
        }
        refinementbox6
        {
            // Surface-wise min and max refinement level
            level (0 0);

            // Optional region-wise level specification

            // Optional angle to detect small-large cell situation perpendicular
            // to the surface. Is the angle of face w.r.t the local surface
            // normal. Use on flat(ish) surfaces only. Otherwise
            // leave out or set to negative number.
            //perpendicularAngle 10;
        }
        refinementbox6u
        {
            // Surface-wise min and max refinement level
            level (0 0);

            // Optional region-wise level specification

            // Optional angle to detect small-large cell situation perpendicular
            // to the surface. Is the angle of face w.r.t the local surface
            // normal. Use on flat(ish) surfaces only. Otherwise
            // leave out or set to negative number.
            //perpendicularAngle 10;
        }
    }

    resolveFeatureAngle 90;


    // Region-wise refinement
    // ~~~~~~~~~~~~~~~~~~~~~~

    // Specifies refinement level for cells in relation to a surface. One of
    // three modes
    // - distance. 'levels' specifies per distance to the surface the
    //   wanted refinement level. The distances need to be specified in
    //   descending order.
    // - inside. 'levels' is only one entry and only the level is used. All
    //   cells inside the surface get refined up to the level. The surface
    //   needs to be closed for this to be possible.
    // - outside. Same but cells outside.

    refinementRegions
    {
      //refinementbox
     // {
      //   mode inside;
     //	 levels ((1e15 1));
     // }
    }


    // Mesh selection
    // ~~~~~~~~~~~~~~

    // After refinement patches get added for all refinementSurfaces and
    // all cells intersecting the surfaces get put into these patches. The
    // section reachable from the locationInMesh is kept.
    // NOTE: This point should never be on a face, always inside a cell, even
    // after refinement.
    locationInMesh (0.0134 2.0 0.0035);

    allowFreeStandingZoneFaces true;
}



// Settings for the snapping.
snapControls
{
    //- Number of patch smoothing iterations before finding correspondence
    //  to surface
    nSmoothPatch 8;

    //- Relative distance for points to be attracted by surface feature point
    //  or edge. True distance is this factor times local
    //  maximum edge length.
    tolerance 1.0;

    //- Number of mesh displacement relaxation iterations.
    nSolveIter 100;

    //- Maximum number of snapping relaxation iterations. Should stop
    //  before upon reaching a correct mesh.
    nRelaxIter 20;

    //nFeatureSnapIter 30;
}



// Settings for the layer addition.
addLayersControls
{
    // Are the thickness parameters below relative to the undistorted
    // size of the refined cell outside layer (true) or absolute sizes (false).
    relativeSizes true;

    // Per final patch (so not geometry!) the layer information
    layers
    {
        mysuplat
        {
            nSurfaceLayers 3;

        }
    }

    // Expansion factor for layer mesh
    expansionRatio 1.1;


    //- Wanted thickness of final added cell layer. If multiple layers
    //  is the thickness of the layer furthest away from the wall.
    //  See relativeSizes parameter.
    finalLayerThickness 0.7;

    //- Minimum thickness of cell layer. If for any reason layer
    //  cannot be above minThickness do not add layer.
    //  See relativeSizes parameter.
    minThickness 0.1;

    //- If points get not extruded do nGrow layers of connected faces that are
    //  also not grown. This helps convergence of the layer addition process
    //  close to features.
    nGrow 1;


    // Advanced settings

    //- When not to extrude surface. 0 is flat surface, 90 is when two faces
    //  make straight angle.
    featureAngle 110;

    //- Maximum number of snapping relaxation iterations. Should stop
    //  before upon reaching a correct mesh.
    nRelaxIter 5;

    // Number of smoothing iterations of surface normals
    nSmoothSurfaceNormals 1;

    // Number of smoothing iterations of interior mesh movement direction
    nSmoothNormals 3;

    // Smooth layer thickness over surface patches
    nSmoothThickness 10;

    // Stop layer growth on highly warped cells
    maxFaceThicknessRatio 0.9;

    // Reduce layer growth where ratio thickness to medial
    // distance is large
    maxThicknessToMedialRatio 0.9;

    // Angle used to pick up medial axis points
    minMedianAxisAngle 130;

    // Create buffer region for new layer terminations
    nBufferCellsNoExtrude 0;


    // Overall max number of layer addition iterations
    nLayerIter 50;

    // Max number of iterations after which relaxed meshQuality controls
    // get used.
    nRelaxedIter 20;
}



// Generic mesh quality settings. At any undoable phase these determine
// where to undo.
meshQualityControls
{
    //- Maximum non-orthogonality allowed. Set to 180 to disable.
    maxNonOrtho 65;

    //- Max skewness allowed. Set to <0 to disable.
    maxBoundarySkewness 20;
    maxInternalSkewness 4;

    //- Max concaveness allowed. Is angle (in degrees) below which concavity
    //  is allowed. 0 is straight face, <0 would be convex face.
    //  Set to 180 to disable.
    maxConcave 80;

    //- Minimum projected area v.s. actual area. Set to -1 to disable.
    minFlatness 0.5;

    //- Minimum pyramid volume. Is absolute volume of cell pyramid.
    //  Set to a sensible fraction of the smallest cell volume expected.
    //  Set to very negative number (e.g. -1E30) to disable.
    minVol 1e-13;

    minTetQuality 1e-30;

    //- Minimum face area. Set to <0 to disable.
    minArea -1;

    //- Minimum face twist. Set to <-1 to disable. dot product of face normal
    //- and face centre triangles normal
    minTwist 0.05;

    //- minimum normalised cell determinant
    //- 1 = hex, <= 0 = folded or flattened illegal cell
    minDeterminant 0.001;

    //- minFaceWeight (0 -> 0.5)
    minFaceWeight 0.05;

    //- minVolRatio (0 -> 1)
    minVolRatio 0.01;

    //must be >0 for Fluent compatibility
    minTriangleTwist -1;

    //- if >0 : preserve single cells with all points on the surface if the
    //  resulting volume after snapping (by approximation) is larger than
    //  minVolCollapseRatio times old volume (i.e. not collapsed to flat cell).
    //  If <0 : delete always.
    //minVolCollapseRatio 0.5;


    // Advanced

    //- Number of error distribution iterations
    nSmoothScale 4;
    //- amount to scale back displacement at error points
    errorReduction 0.75;



    // Optional : some meshing phases allow usage of relaxed rules.
    // See e.g. addLayersControls::nRelaxedIter.
    relaxed
    {
        //- Maximum non-orthogonality allowed. Set to 180 to disable.
        maxNonOrtho 75;
    }
}


// Advanced

// Flags for optional output
// 0 : only write final meshes
// 1 : write intermediate meshes
// 2 : write volScalarField with cellLevel for postprocessing
// 4 : write current intersections as .obj files
debug 0;


// Merge tolerance. Is fraction of overall bounding box of initial mesh.
// Note: the write tolerance needs to be higher than this.
mergeTolerance 1E-6;


// ************************************************************************* //
