/*--------------------------------*- C++ -*----------------------------------*\
| =========                 |                                                 |
| \\      /  F ield         | OpenFOAM Extend Project: Open Source CFD        |
|  \\    /   O peration     | Version:  1.6-ext                               |
|   \\  /    A nd           | Web:      www.extend-project.de                 |
|    \\/     M anipulation  |                                                 |
\*---------------------------------------------------------------------------*/
FoamFile
{
    version     2.0;
    format      ascii;
    class       dictionary;
    object      fvSolution;
}
// * * * * * * * * * * * * * * * * * * * * * * * * * * * * * * * * * * * * * //

solvers
{
    "(p|tempDiffScalar|tempDiffVector)"
    {
        solver           BiCGStab;
        preconditioner   DIC;

        minIter          1;
        maxIter          1000;
        tolerance        1e-6;
        relTol           0;
    };
    "(p|tempDiffScalar|tempDiffVector)Final"
    {
	$p
    }

    "(U|rho|T)"
    {
        solver           PBiCG;
        preconditioner   DILU;

        minIter          1;
        maxIter          1000;
        tolerance        1e-06;
        relTol           0;
    };
    "(U|rho|T)Final"
    {
	$U;
    };
}
PIMPLE
{
    momentumPredictor yes;
    nOuterCorrectors 1;
    nCorrectors     2;
    nNonOrthogonalCorrectors 0;
}
PISO
{
    momentumPredictor yes;
    nOuterCorrectors 2;
    nCorrectors     1;
    nNonOrthogonalCorrectors 0;
}


// ************************************************************************* //
